Circuit: * C:\users\oliver\Documents\LTspiceXVII\Draft1.asc

.OP point found by inspection.

Date: Sun Mar 17 20:11:08 2024
Total elapsed time: 0.105 seconds.

tnom = 27
temp = 27
method = modified trap
totiter = 2739
traniter = 2739
tranpoints = 1265
accept = 1187
rejected = 78
matrix size = 9
fillins = 4
solver = Normal
Matrix Compiler1:      33 opcodes  0.2/[0.1]/0.2
Matrix Compiler2: 715 bytes object code size  0.2/0.2/[0.1]

