Circuit: * Z:\home\oliver\Dokumente\LTspiceXVII\lib\sym\Draft2.asc


Date: Tue May 07 11:28:08 2024
Total elapsed time: 0.032 seconds.

tnom = 27
temp = 27
method = trap
totiter = 0
traniter = 0
tranpoints = 0
accept = 0
rejected = 0
matrix size = 3
fillins = 0
solver = Normal

